42113
                    3D
 Schrodinger Suite 2021-2.
 52 56  0  0  1  0            999 V2000
   42.8041   36.8854   73.8615 C   0  0  0  0  0  0
   43.3347   36.0896   72.6866 C   0  0  0  0  0  0
   42.5491   35.1001   72.0740 C   0  0  0  0  0  0
   43.1379   34.4099   71.0011 C   0  0  0  0  0  0
   42.3792   33.3217   70.2626 C   0  0  0  0  0  0
   44.3900   34.6973   70.5689 N   0  0  0  0  0  0
   45.0623   35.6509   71.2291 C   0  0  0  0  0  0
   44.5953   36.3561   72.2700 N   0  0  0  0  0  0
   46.3669   35.9314   70.8109 N   0  0  0  0  0  0
   47.0117   35.2932   69.6764 C   0  0  0  0  0  0
   48.4538   35.8362   69.5830 C   0  0  1  0  0  0
   48.6889   36.7692   68.3809 C   0  0  0  0  0  0
   48.4591   38.1178   68.9001 N   0  0  0  0  0  0
   48.9260   38.1255   70.2842 C   0  0  0  0  0  0
   48.6545   36.7090   70.8206 C   0  0  1  0  0  0
   47.3640   36.5829   71.6490 C   0  0  0  0  0  0
   47.5254   38.9848   68.4306 C   0  0  0  0  0  0
   47.0889   39.9269   69.0932 O   0  0  0  0  0  0
   46.9798   38.7453   67.0457 C   0  0  0  0  0  0
   45.6082   38.4152   66.9288 C   0  0  0  0  0  0
   45.0440   38.1440   65.6654 C   0  0  0  0  0  0
   45.8231   38.2493   64.5017 C   0  0  0  0  0  0
   47.1836   38.5818   64.6070 C   0  0  0  0  0  0
   47.7834   38.8229   65.8692 C   0  0  0  0  0  0
   49.1814   39.0906   65.8846 N   0  0  0  0  0  0
   50.0398   38.3796   65.1065 N   0  0  0  0  0  0
   51.1941   38.9410   65.3498 C   0  0  0  0  0  0
   51.0264   39.9971   66.2734 C   0  0  0  0  0  0
   49.7668   40.0780   66.6147 N   0  0  0  0  0  0
   41.7586   36.6641   74.0669 H   0  0  0  0  0  0
   43.3708   36.6606   74.7623 H   0  0  0  0  0  0
   42.9015   37.9542   73.6737 H   0  0  0  0  0  0
   41.5437   34.8828   72.3996 H   0  0  0  0  0  0
   41.4510   33.0512   70.7672 H   0  0  0  0  0  0
   42.1166   33.6689   69.2604 H   0  0  0  0  0  0
   42.9938   32.4339   70.1565 H   0  0  0  0  0  0
   46.4433   35.4906   68.7643 H   0  0  0  0  0  0
   47.0305   34.2131   69.8283 H   0  0  0  0  0  0
   49.1625   35.0062   69.5627 H   0  0  0  0  0  0
   48.0587   36.4848   67.5372 H   0  0  0  0  0  0
   49.7234   36.6956   68.0379 H   0  0  0  0  0  0
   48.4508   38.8781   70.9120 H   0  0  0  0  0  0
   49.9979   38.3382   70.2843 H   0  0  0  0  0  0
   49.5087   36.3832   71.4146 H   0  0  0  0  0  0
   47.5452   35.9540   72.5228 H   0  0  0  0  0  0
   47.0180   37.5534   72.0172 H   0  0  0  0  0  0
   44.9901   38.3328   67.8096 H   0  0  0  0  0  0
   43.9976   37.8735   65.5989 H   0  0  0  0  0  0
   45.3847   38.0665   63.5315 H   0  0  0  0  0  0
   47.7820   38.6546   63.7087 H   0  0  0  0  0  0
   52.0993   38.5928   64.8696 H   0  0  0  0  0  0
   51.7673   40.6632   66.6849 H   0  0  0  0  0  0
  1  2  1  0  0  0
  1 30  1  0  0  0
  1 31  1  0  0  0
  1 32  1  0  0  0
  2  3  2  0  0  0
  2  8  1  0  0  0
  3  4  1  0  0  0
  3 33  1  0  0  0
  4  5  1  0  0  0
  4  6  2  0  0  0
  5 34  1  0  0  0
  5 35  1  0  0  0
  5 36  1  0  0  0
  6  7  1  0  0  0
  7  8  2  0  0  0
  7  9  1  0  0  0
  9 10  1  0  0  0
  9 16  1  0  0  0
 10 11  1  0  0  0
 10 37  1  0  0  0
 10 38  1  0  0  0
 11 12  1  0  0  0
 11 15  1  0  0  0
 11 39  1  0  0  0
 12 13  1  0  0  0
 12 40  1  0  0  0
 12 41  1  0  0  0
 13 14  1  0  0  0
 13 17  1  0  0  0
 14 15  1  0  0  0
 14 42  1  0  0  0
 14 43  1  0  0  0
 15 16  1  0  0  0
 15 44  1  0  0  0
 16 45  1  0  0  0
 16 46  1  0  0  0
 17 18  2  0  0  0
 17 19  1  0  0  0
 19 20  2  0  0  0
 19 24  1  0  0  0
 20 21  1  0  0  0
 20 47  1  0  0  0
 21 22  2  0  0  0
 21 48  1  0  0  0
 22 23  1  0  0  0
 22 49  1  0  0  0
 23 24  2  0  0  0
 23 50  1  0  0  0
 24 25  1  0  0  0
 25 26  1  0  0  0
 25 29  1  0  0  0
 26 27  2  0  0  0
 27 28  1  0  0  0
 27 51  1  0  0  0
 28 29  2  0  0  0
 28 52  1  0  0  0
M  END
> <entry id>
61

> <entry name>
OX2_Set2_JOB19_Ligs.4

> <Source Path>
C:\shenshi\GPCR\OX2_fep\ci0c00449_si_002\SI_DataSet_Inputs

> <Source File>
OX2_Set2_JOB19_Ligs.sdf

> <Source File Index>
4

> <HCRTR2_C pKi>
7.9277

> <job name>
constraint-docking

> <glide gridfile>
glide-grid_1

> <glide lignum>
4

> <glide rotatable bonds>
4

> <docking score>
-9.20298979104249

> <glide ligand efficiency>
-0.317344475553189

> <glide ligand efficiency sa>
-0.974982770686163

> <glide ligand efficiency ln>
-2.10725129446314

> <glide gscore>
-9.20298979104249

> <glide lipo>
-2.3722041123326

> <glide hbond>
-1.17301063631592

> <glide metal>
0

> <glide rewards>
-1.27434537769287

> <glide evdw>
-45.5755844116211

> <glide ecoul>
-17.4454956054688

> <glide erotb>
0.514113236885047

> <glide esite>
-0.00193934018478022

> <glide emodel>
-107.256722546003

> <glide energy>
-63.0210800170898

> <glide einternal>
3.26638229353193e-07

> <glide confnum>
4

> <glide posenum>
4

> <glide eff state penalty>
0

> <glide rmsd>
0.0379961029569822

> <core constrain type>
snapped_core_restrain

> <subgroup title>
constraint-docking_pv1

> <subgroupid>
constraint-docking_pv1

> <subgroup collapsed>
0

$$$$
