42670
                    3D
 Schrodinger Suite 2021-2.
 52 56  0  0  1  0            999 V2000
   42.4042   33.3160   70.2693 C   0  0  0  0  0  0
   43.1461   34.4224   70.9906 C   0  0  0  0  0  0
   42.5545   35.0970   72.0710 C   0  0  0  0  0  0
   43.3364   36.0905   72.6820 C   0  0  0  0  0  0
   42.8028   36.8802   73.8617 C   0  0  0  0  0  0
   44.5988   36.3647   72.2661 N   0  0  0  0  0  0
   45.0718   35.6660   71.2219 C   0  0  0  0  0  0
   44.3995   34.7138   70.5596 N   0  0  0  0  0  0
   46.3792   35.9474   70.8026 N   0  0  0  0  0  0
   47.0368   35.2970   69.6757 C   0  0  0  0  0  0
   48.4699   35.8537   69.5667 C   0  0  1  0  0  0
   48.6616   36.7934   68.3691 C   0  0  0  0  0  0
   48.4588   38.1372   68.9055 N   0  0  0  0  0  0
   48.9367   38.1413   70.2859 C   0  0  0  0  0  0
   48.6736   36.7212   70.8056 C   0  0  1  0  0  0
   47.3884   36.5811   71.6408 C   0  0  0  0  0  0
   47.5051   38.9918   68.4638 C   0  0  0  0  0  0
   47.0619   39.9216   69.1373 O   0  0  0  0  0  0
   46.9547   38.7777   67.0786 C   0  0  0  0  0  0
   45.5824   38.4490   66.9443 C   0  0  0  0  0  0
   45.0249   38.1904   65.6755 C   0  0  0  0  0  0
   45.8548   38.3064   64.5545 C   0  0  0  0  0  0
   45.5042   37.6791   63.0830 Cl  0  0  0  0  0  0
   47.1964   38.6482   64.6584 C   0  0  0  0  0  0
   47.7767   38.8552   65.9156 C   0  0  0  0  0  0
   49.1663   39.0952   65.9179 N   0  0  0  0  0  0
   50.0189   38.3841   65.1307 N   0  0  0  0  0  0
   51.1728   38.9446   65.3742 C   0  0  0  0  0  0
   51.0112   39.9886   66.3077 C   0  0  0  0  0  0
   49.7540   40.0672   66.6524 N   0  0  0  0  0  0
   41.4440   33.0973   70.7325 H   0  0  0  0  0  0
   42.2407   33.5879   69.2268 H   0  0  0  0  0  0
   42.9950   32.4047   70.2770 H   0  0  0  0  0  0
   41.5538   34.8623   72.4117 H   0  0  0  0  0  0
   41.7909   36.5620   74.1248 H   0  0  0  0  0  0
   43.4377   36.7415   74.7345 H   0  0  0  0  0  0
   42.7696   37.9392   73.6273 H   0  0  0  0  0  0
   46.4792   35.4850   68.7583 H   0  0  0  0  0  0
   47.0653   34.2211   69.8368 H   0  0  0  0  0  0
   49.1950   35.0406   69.5288 H   0  0  0  0  0  0
   47.9507   36.5575   67.5848 H   0  0  0  0  0  0
   49.6541   36.6829   67.9322 H   0  0  0  0  0  0
   48.4639   38.8934   70.9175 H   0  0  0  0  0  0
   50.0078   38.3540   70.2987 H   0  0  0  0  0  0
   49.5314   36.3834   71.3820 H   0  0  0  0  0  0
   47.5955   35.9468   72.5030 H   0  0  0  0  0  0
   47.0439   37.5476   72.0034 H   0  0  0  0  0  0
   44.9446   38.3464   67.8101 H   0  0  0  0  0  0
   43.9925   37.8928   65.5625 H   0  0  0  0  0  0
   47.7941   38.6927   63.7542 H   0  0  0  0  0  0
   52.0822   38.6100   64.8992 H   0  0  0  0  0  0
   51.7550   40.6485   66.7234 H   0  0  0  0  0  0
  1  2  1  0  0  0
  1 31  1  0  0  0
  1 32  1  0  0  0
  1 33  1  0  0  0
  2  3  2  0  0  0
  2  8  1  0  0  0
  3  4  1  0  0  0
  3 34  1  0  0  0
  4  5  1  0  0  0
  4  6  2  0  0  0
  5 35  1  0  0  0
  5 36  1  0  0  0
  5 37  1  0  0  0
  6  7  1  0  0  0
  7  8  2  0  0  0
  7  9  1  0  0  0
  9 10  1  0  0  0
  9 16  1  0  0  0
 10 11  1  0  0  0
 10 38  1  0  0  0
 10 39  1  0  0  0
 11 12  1  0  0  0
 11 15  1  0  0  0
 11 40  1  0  0  0
 12 13  1  0  0  0
 12 41  1  0  0  0
 12 42  1  0  0  0
 13 14  1  0  0  0
 13 17  1  0  0  0
 14 15  1  0  0  0
 14 43  1  0  0  0
 14 44  1  0  0  0
 15 16  1  0  0  0
 15 45  1  0  0  0
 16 46  1  0  0  0
 16 47  1  0  0  0
 17 18  2  0  0  0
 17 19  1  0  0  0
 19 20  2  0  0  0
 19 25  1  0  0  0
 20 21  1  0  0  0
 20 48  1  0  0  0
 21 22  2  0  0  0
 21 49  1  0  0  0
 22 23  1  0  0  0
 22 24  1  0  0  0
 24 25  2  0  0  0
 24 50  1  0  0  0
 25 26  1  0  0  0
 26 27  1  0  0  0
 26 30  1  0  0  0
 27 28  2  0  0  0
 28 29  1  0  0  0
 28 51  1  0  0  0
 29 30  2  0  0  0
 29 52  1  0  0  0
M  END
> <entry id>
72

> <entry name>
OX2_Set2_JOB19_Ligs.6

> <Source Path>
C:\shenshi\GPCR\OX2_fep\ci0c00449_si_002\SI_DataSet_Inputs

> <Source File>
OX2_Set2_JOB19_Ligs.sdf

> <Source File Index>
6

> <HCRTR2_C pKi>
7.7447

> <job name>
constraint-docking

> <glide gridfile>
glide-grid_1

> <glide lignum>
6

> <glide rotatable bonds>
4

> <docking score>
-8.25984399961853

> <glide ligand efficiency>
-0.275328133320618

> <glide ligand efficiency sa>
-0.855508524687504

> <glide ligand efficiency ln>
-1.876726554922

> <glide gscore>
-8.25984399961853

> <glide lipo>
-2.35423093730678

> <glide hbond>
-1.17603572403438

> <glide metal>
0

> <glide rewards>
-1.02935516115774

> <glide evdw>
-33.8258476257324

> <glide ecoul>
-16.3189277648926

> <glide erotb>
0.441283067400208

> <glide esite>
-0.0023736984993398

> <glide emodel>
-74.7195738809171

> <glide energy>
-50.144775390625

> <glide einternal>
6.18065939761436e-07

> <glide confnum>
2

> <glide posenum>
3

> <glide eff state penalty>
0

> <glide rmsd>
0.0374202684096302

> <core constrain type>
snapped_core_restrain

> <subgroup title>
constraint-docking_pv1

> <subgroupid>
constraint-docking_pv1

> <subgroup collapsed>
0

$$$$
