42689
                    3D
 Schrodinger Suite 2021-2.
 55 59  0  0  1  0            999 V2000
   43.6380   37.8185   65.4236 C   0  0  0  0  0  0
   45.0700   38.2037   65.6157 C   0  0  0  0  0  0
   45.8614   38.3042   64.4785 C   0  0  0  0  0  0
   47.2157   38.6214   64.6038 C   0  0  0  0  0  0
   47.7965   38.8323   65.8758 C   0  0  0  0  0  0
   46.9788   38.7614   67.0381 C   0  0  0  0  0  0
   45.6102   38.4503   66.8982 C   0  0  0  0  0  0
   47.5150   38.9827   68.4299 C   0  0  0  0  0  0
   47.0789   39.9247   69.0940 O   0  0  0  0  0  0
   48.4552   38.1213   68.8903 N   0  0  0  0  0  0
   48.9212   38.1322   70.2737 C   0  0  0  0  0  0
   48.6676   36.7070   70.8024 C   0  0  1  0  0  0
   47.3819   36.5689   71.6390 C   0  0  0  0  0  0
   46.3794   35.9337   70.7979 N   0  0  0  0  0  0
   47.0312   35.2748   69.6758 C   0  0  0  0  0  0
   48.4623   35.8352   69.5611 C   0  0  1  0  0  0
   48.6699   36.7751   68.3625 C   0  0  0  0  0  0
   45.0718   35.6620   71.2131 C   0  0  0  0  0  0
   44.6010   36.3709   72.2500 N   0  0  0  0  0  0
   43.3428   36.1023   72.6641 C   0  0  0  0  0  0
   42.8090   36.8977   73.8377 C   0  0  0  0  0  0
   42.5582   35.1086   72.0540 C   0  0  0  0  0  0
   43.1495   34.4197   70.9807 C   0  0  0  0  0  0
   42.3994   33.3026   70.2815 C   0  0  0  0  0  0
   44.4005   34.7052   70.5521 N   0  0  0  0  0  0
   49.1936   39.0851   65.8945 N   0  0  0  0  0  0
   50.0510   38.3795   65.1120 N   0  0  0  0  0  0
   51.2056   38.9386   65.3608 C   0  0  0  0  0  0
   51.0439   39.9856   66.2884 C   0  0  0  0  0  0
   49.7789   40.0707   66.6292 N   0  0  0  0  0  0
   43.1245   37.7648   66.3819 H   0  0  0  0  0  0
   43.0847   38.5028   64.7865 H   0  0  0  0  0  0
   43.5974   36.8814   64.8768 H   0  0  0  0  0  0
   45.4336   38.1101   63.5065 H   0  0  0  0  0  0
   47.8152   38.6810   63.7142 H   0  0  0  0  0  0
   44.9764   38.4009   67.7693 H   0  0  0  0  0  0
   48.4541   38.8937   70.9028 H   0  0  0  0  0  0
   49.9902   38.3478   70.2606 H   0  0  0  0  0  0
   49.5262   36.3619   71.3784 H   0  0  0  0  0  0
   47.0362   37.5335   72.0114 H   0  0  0  0  0  0
   47.5654   35.9321   72.5039 H   0  0  0  0  0  0
   46.4644   35.4394   68.7609 H   0  0  0  0  0  0
   47.0532   34.2011   69.8505 H   0  0  0  0  0  0
   49.1789   35.0129   69.5254 H   0  0  0  0  0  0
   49.6981   36.7160   68.0035 H   0  0  0  0  0  0
   48.0236   36.4986   67.5285 H   0  0  0  0  0  0
   41.7279   36.7832   73.9261 H   0  0  0  0  0  0
   43.2611   36.5576   74.7693 H   0  0  0  0  0  0
   43.0261   37.9586   73.7192 H   0  0  0  0  0  0
   41.5553   34.8859   72.3907 H   0  0  0  0  0  0
   41.4484   33.6682   69.8914 H   0  0  0  0  0  0
   42.9750   32.8847   69.4548 H   0  0  0  0  0  0
   42.1914   32.4957   70.9861 H   0  0  0  0  0  0
   52.1103   38.6037   64.8746 H   0  0  0  0  0  0
   51.7823   40.6543   66.7027 H   0  0  0  0  0  0
  1  2  1  0  0  0
  1 31  1  0  0  0
  1 32  1  0  0  0
  1 33  1  0  0  0
  2  3  2  0  0  0
  2  7  1  0  0  0
  3  4  1  0  0  0
  3 34  1  0  0  0
  4  5  2  0  0  0
  4 35  1  0  0  0
  5  6  1  0  0  0
  5 26  1  0  0  0
  6  7  2  0  0  0
  6  8  1  0  0  0
  7 36  1  0  0  0
  8  9  2  0  0  0
  8 10  1  0  0  0
 10 11  1  0  0  0
 10 17  1  0  0  0
 11 12  1  0  0  0
 11 37  1  0  0  0
 11 38  1  0  0  0
 12 13  1  0  0  0
 12 16  1  0  0  0
 12 39  1  0  0  0
 13 14  1  0  0  0
 13 40  1  0  0  0
 13 41  1  0  0  0
 14 15  1  0  0  0
 14 18  1  0  0  0
 15 16  1  0  0  0
 15 42  1  0  0  0
 15 43  1  0  0  0
 16 17  1  0  0  0
 16 44  1  0  0  0
 17 45  1  0  0  0
 17 46  1  0  0  0
 18 19  2  0  0  0
 18 25  1  0  0  0
 19 20  1  0  0  0
 20 21  1  0  0  0
 20 22  2  0  0  0
 21 47  1  0  0  0
 21 48  1  0  0  0
 21 49  1  0  0  0
 22 23  1  0  0  0
 22 50  1  0  0  0
 23 24  1  0  0  0
 23 25  2  0  0  0
 24 51  1  0  0  0
 24 52  1  0  0  0
 24 53  1  0  0  0
 26 27  1  0  0  0
 26 30  1  0  0  0
 27 28  2  0  0  0
 28 29  1  0  0  0
 28 54  1  0  0  0
 29 30  2  0  0  0
 29 55  1  0  0  0
M  END
> <entry id>
65

> <entry name>
OX2_Set2_JOB19_Ligs.10

> <Source Path>
C:\shenshi\GPCR\OX2_fep\ci0c00449_si_002\SI_DataSet_Inputs

> <Source File>
OX2_Set2_JOB19_Ligs.sdf

> <Source File Index>
10

> <HCRTR2_C pKi>
7.3234

> <job name>
constraint-docking

> <glide gridfile>
glide-grid_1

> <glide lignum>
10

> <glide rotatable bonds>
4

> <docking score>
-8.91909570494162

> <glide ligand efficiency>
-0.297303190164721

> <glide ligand efficiency sa>
-0.923790135556271

> <glide ligand efficiency ln>
-2.02651572549406

> <glide gscore>
-8.91909570494162

> <glide lipo>
-2.35458883613749

> <glide hbond>
-1.17869668815878

> <glide metal>
0

> <glide rewards>
-1.17452463013716

> <glide evdw>
-40.3424072265625

> <glide ecoul>
-17.8330345153809

> <glide erotb>
0.482415721039915

> <glide esite>
-0.00162573291286065

> <glide emodel>
-91.9188695016976

> <glide energy>
-58.1754417419434

> <glide einternal>
8.88225940798293e-07

> <glide confnum>
4

> <glide posenum>
1

> <glide eff state penalty>
0

> <glide rmsd>
0.040222603899192

> <core constrain type>
snapped_core_restrain

> <subgroup title>
constraint-docking_pv1

> <subgroupid>
constraint-docking_pv1

> <subgroup collapsed>
0

$$$$
