42922
                    3D
 Schrodinger Suite 2021-2.
 52 56  0  0  1  0            999 V2000
   42.8049   36.8777   73.8516 C   0  0  0  0  0  0
   43.3302   36.0951   72.6721 C   0  0  0  0  0  0
   42.5466   35.1129   72.0532 C   0  0  0  0  0  0
   43.1410   34.4342   70.9712 C   0  0  0  0  0  0
   42.3956   33.3161   70.2631 C   0  0  0  0  0  0
   44.3940   34.7253   70.5466 N   0  0  0  0  0  0
   45.0661   35.6722   71.2144 C   0  0  0  0  0  0
   44.5865   36.3748   72.2578 N   0  0  0  0  0  0
   46.3831   35.9439   70.8050 N   0  0  0  0  0  0
   47.0347   35.2905   69.6765 C   0  0  0  0  0  0
   48.4716   35.8524   69.5733 C   0  0  1  0  0  0
   49.1950   35.0389   69.5552 H   0  0  0  0  0  0
   48.6851   36.7808   68.3713 C   0  0  0  0  0  0
   48.4557   38.1267   68.8953 N   0  0  0  0  0  0
   48.9008   38.1441   70.2863 C   0  0  0  0  0  0
   48.6665   36.7205   70.8120 C   0  0  1  0  0  0
   49.5382   36.3929   71.3853 H   0  0  0  0  0  0
   47.3873   36.5692   71.6529 C   0  0  0  0  0  0
   47.5185   38.9950   68.4243 C   0  0  0  0  0  0
   47.1001   39.9485   69.0711 O   0  0  0  0  0  0
   46.9721   38.7496   67.0471 C   0  0  0  0  0  0
   45.5993   38.4190   66.9180 C   0  0  0  0  0  0
   44.8115   38.3289   68.0159 F   0  0  0  0  0  0
   45.0378   38.1525   65.6565 C   0  0  0  0  0  0
   45.8271   38.2586   64.4963 C   0  0  0  0  0  0
   47.1891   38.5914   64.6092 C   0  0  0  0  0  0
   47.7780   38.8263   65.8705 C   0  0  0  0  0  0
   49.1754   39.0812   65.8807 N   0  0  0  0  0  0
   49.7644   40.0662   66.6195 N   0  0  0  0  0  0
   51.0243   39.9790   66.2728 C   0  0  0  0  0  0
   51.1883   38.9309   65.3398 C   0  0  0  0  0  0
   50.0321   38.3687   65.0918 N   0  0  0  0  0  0
   41.7775   36.5947   74.0887 H   0  0  0  0  0  0
   43.4152   36.7010   74.7446 H   0  0  0  0  0  0
   42.8146   37.9471   73.6474 H   0  0  0  0  0  0
   41.5461   34.8859   72.3829 H   0  0  0  0  0  0
   41.4772   33.0436   70.7753 H   0  0  0  0  0  0
   42.1388   33.6459   69.2438 H   0  0  0  0  0  0
   43.0347   32.4430   70.1566 H   0  0  0  0  0  0
   46.4680   35.4803   68.7666 H   0  0  0  0  0  0
   47.0679   34.2136   69.8374 H   0  0  0  0  0  0
   48.0482   36.4961   67.5342 H   0  0  0  0  0  0
   49.7174   36.7067   68.0227 H   0  0  0  0  0  0
   48.3441   38.8669   70.8822 H   0  0  0  0  0  0
   49.9530   38.4147   70.3640 H   0  0  0  0  0  0
   47.5864   35.9282   72.5077 H   0  0  0  0  0  0
   47.0471   37.5367   72.0211 H   0  0  0  0  0  0
   44.0010   37.8902   65.5709 H   0  0  0  0  0  0
   45.3929   38.0812   63.5244 H   0  0  0  0  0  0
   47.7816   38.6650   63.7056 H   0  0  0  0  0  0
   51.7711   40.6410   66.6851 H   0  0  0  0  0  0
   52.0950   38.5927   64.8619 H   0  0  0  0  0  0
  1  2  1  0  0  0
  1 33  1  0  0  0
  1 34  1  0  0  0
  1 35  1  0  0  0
  2  3  2  0  0  0
  2  8  1  0  0  0
  3  4  1  0  0  0
  3 36  1  0  0  0
  4  5  1  0  0  0
  4  6  2  0  0  0
  5 37  1  0  0  0
  5 38  1  0  0  0
  5 39  1  0  0  0
  6  7  1  0  0  0
  7  8  2  0  0  0
  7  9  1  0  0  0
  9 10  1  0  0  0
  9 18  1  0  0  0
 10 11  1  0  0  0
 10 40  1  0  0  0
 10 41  1  0  0  0
 11 12  1  0  0  0
 11 13  1  0  0  0
 11 16  1  0  0  0
 13 14  1  0  0  0
 13 42  1  0  0  0
 13 43  1  0  0  0
 14 15  1  0  0  0
 14 19  1  0  0  0
 15 16  1  0  0  0
 15 44  1  0  0  0
 15 45  1  0  0  0
 16 17  1  0  0  0
 16 18  1  0  0  0
 18 46  1  0  0  0
 18 47  1  0  0  0
 19 20  2  0  0  0
 19 21  1  0  0  0
 21 22  2  0  0  0
 21 27  1  0  0  0
 22 23  1  0  0  0
 22 24  1  0  0  0
 24 25  2  0  0  0
 24 48  1  0  0  0
 25 26  1  0  0  0
 25 49  1  0  0  0
 26 27  2  0  0  0
 26 50  1  0  0  0
 27 28  1  0  0  0
 28 29  1  0  0  0
 28 32  1  0  0  0
 29 30  2  0  0  0
 30 31  1  0  0  0
 30 51  1  0  0  0
 31 32  2  0  0  0
 31 52  1  0  0  0
M  END
> <entry id>
60

> <entry name>
OX2_Set2_JOB19_Ligs.2

> <Source Path>
C:\shenshi\GPCR\OX2_fep\ci0c00449_si_002\SI_DataSet_Inputs

> <Source File>
OX2_Set2_JOB19_Ligs.sdf

> <Source File Index>
2

> <HCRTR2_C pKi>
8.0312

> <job name>
constraint-docking

> <glide gridfile>
glide-grid_1

> <glide lignum>
2

> <glide rotatable bonds>
4

> <docking score>
-9.25029547651705

> <glide ligand efficiency>
-0.308343182550568

> <glide ligand efficiency sa>
-0.958093958724168

> <glide ligand efficiency ln>
-2.10176792230654

> <glide gscore>
-9.25029547651705

> <glide lipo>
-2.35301094822412

> <glide hbond>
-1.20360968940828

> <glide metal>
0

> <glide rewards>
-1.2873277127503

> <glide evdw>
-46.0196151733398

> <glide ecoul>
-17.179594039917

> <glide erotb>
0.473990751279692

> <glide esite>
-0.00241801275949824

> <glide emodel>
-108.380949018543

> <glide energy>
-63.1992092132568

> <glide einternal>
1.17645095087937e-06

> <glide confnum>
3

> <glide posenum>
1

> <glide eff state penalty>
0

> <glide rmsd>
0.0354727886393652

> <core constrain type>
snapped_core_restrain

> <subgroup title>
constraint-docking_pv1

> <subgroupid>
constraint-docking_pv1

> <subgroup collapsed>
0

$$$$
