43216
                    3D
 Schrodinger Suite 2021-2.
 52 56  0  0  1  0            999 V2000
   42.3837   33.3164   70.2593 C   0  0  0  0  0  0
   43.1316   34.4167   70.9795 C   0  0  0  0  0  0
   42.5422   35.0918   72.0624 C   0  0  0  0  0  0
   43.3284   36.0843   72.6755 C   0  0  0  0  0  0
   42.7886   36.8788   73.8541 C   0  0  0  0  0  0
   44.5907   36.3529   72.2581 N   0  0  0  0  0  0
   45.0593   35.6468   71.2197 C   0  0  0  0  0  0
   44.3823   34.7061   70.5494 N   0  0  0  0  0  0
   46.3673   35.9267   70.8049 N   0  0  0  0  0  0
   47.0219   35.2793   69.6765 C   0  0  0  0  0  0
   48.4562   35.8396   69.5736 C   0  0  1  0  0  0
   48.6827   36.7783   68.3777 C   0  0  0  0  0  0
   48.4557   38.1263   68.8990 N   0  0  0  0  0  0
   48.9110   38.1372   70.2881 C   0  0  0  0  0  0
   48.6519   36.7165   70.8173 C   0  0  1  0  0  0
   47.3638   36.5745   71.6457 C   0  0  0  0  0  0
   47.5220   38.9875   68.4325 C   0  0  0  0  0  0
   47.0732   39.9294   69.0936 O   0  0  0  0  0  0
   46.9931   38.7537   67.0432 C   0  0  0  0  0  0
   45.6188   38.4450   66.9065 C   0  0  0  0  0  0
   45.0722   38.2221   65.6353 C   0  0  0  0  0  0
   43.4439   38.0790   65.4067 Cl  0  0  0  0  0  0
   45.8610   38.2961   64.4864 C   0  0  0  0  0  0
   47.2177   38.6089   64.6086 C   0  0  0  0  0  0
   47.8057   38.8247   65.8734 C   0  0  0  0  0  0
   49.2007   39.0813   65.8918 N   0  0  0  0  0  0
   50.0514   38.3638   65.1145 N   0  0  0  0  0  0
   51.2066   38.9268   65.3521 C   0  0  0  0  0  0
   51.0438   39.9860   66.2703 C   0  0  0  0  0  0
   49.7845   40.0777   66.6090 N   0  0  0  0  0  0
   43.0429   32.4852   70.0064 H   0  0  0  0  0  0
   41.5648   32.9351   70.8707 H   0  0  0  0  0  0
   41.9632   33.7078   69.3291 H   0  0  0  0  0  0
   41.5431   34.8599   72.3993 H   0  0  0  0  0  0
   43.3732   36.6618   74.7504 H   0  0  0  0  0  0
   42.8475   37.9505   73.6654 H   0  0  0  0  0  0
   41.7491   36.6315   74.0709 H   0  0  0  0  0  0
   46.4538   35.4624   68.7646 H   0  0  0  0  0  0
   47.0433   34.2006   69.8372 H   0  0  0  0  0  0
   49.1768   35.0196   69.5431 H   0  0  0  0  0  0
   48.0535   36.4962   67.5330 H   0  0  0  0  0  0
   49.7182   36.7176   68.0331 H   0  0  0  0  0  0
   48.4378   38.9015   70.9070 H   0  0  0  0  0  0
   49.9819   38.3534   70.2939 H   0  0  0  0  0  0
   49.4985   36.3877   71.4137 H   0  0  0  0  0  0
   47.5470   35.9405   72.5167 H   0  0  0  0  0  0
   47.0066   37.5377   72.0106 H   0  0  0  0  0  0
   44.9774   38.4236   67.7734 H   0  0  0  0  0  0
   45.4217   38.1397   63.5129 H   0  0  0  0  0  0
   47.8113   38.6794   63.7078 H   0  0  0  0  0  0
   52.1074   38.5825   64.8639 H   0  0  0  0  0  0
   51.7781   40.6657   66.6771 H   0  0  0  0  0  0
  1  2  1  0  0  0
  1 31  1  0  0  0
  1 32  1  0  0  0
  1 33  1  0  0  0
  2  3  2  0  0  0
  2  8  1  0  0  0
  3  4  1  0  0  0
  3 34  1  0  0  0
  4  5  1  0  0  0
  4  6  2  0  0  0
  5 35  1  0  0  0
  5 36  1  0  0  0
  5 37  1  0  0  0
  6  7  1  0  0  0
  7  8  2  0  0  0
  7  9  1  0  0  0
  9 10  1  0  0  0
  9 16  1  0  0  0
 10 11  1  0  0  0
 10 38  1  0  0  0
 10 39  1  0  0  0
 11 12  1  0  0  0
 11 15  1  0  0  0
 11 40  1  0  0  0
 12 13  1  0  0  0
 12 41  1  0  0  0
 12 42  1  0  0  0
 13 14  1  0  0  0
 13 17  1  0  0  0
 14 15  1  0  0  0
 14 43  1  0  0  0
 14 44  1  0  0  0
 15 16  1  0  0  0
 15 45  1  0  0  0
 16 46  1  0  0  0
 16 47  1  0  0  0
 17 18  2  0  0  0
 17 19  1  0  0  0
 19 20  2  0  0  0
 19 25  1  0  0  0
 20 21  1  0  0  0
 20 48  1  0  0  0
 21 22  1  0  0  0
 21 23  2  0  0  0
 23 24  1  0  0  0
 23 49  1  0  0  0
 24 25  2  0  0  0
 24 50  1  0  0  0
 25 26  1  0  0  0
 26 27  1  0  0  0
 26 30  1  0  0  0
 27 28  2  0  0  0
 28 29  1  0  0  0
 28 51  1  0  0  0
 29 30  2  0  0  0
 29 52  1  0  0  0
M  END
> <entry id>
73

> <entry name>
OX2_Set2_JOB19_Ligs.12

> <Source Path>
C:\shenshi\GPCR\OX2_fep\ci0c00449_si_002\SI_DataSet_Inputs

> <Source File>
OX2_Set2_JOB19_Ligs.sdf

> <Source File Index>
12

> <HCRTR2_C pKi>
7.122

> <job name>
constraint-docking

> <glide gridfile>
glide-grid_1

> <glide lignum>
12

> <glide rotatable bonds>
4

> <docking score>
-7.93853142284528

> <glide ligand efficiency>
-0.264617714094843

> <glide ligand efficiency sa>
-0.822228761954513

> <glide ligand efficiency ln>
-1.80372083649818

> <glide gscore>
-7.93853142284528

> <glide lipo>
-2.34914322047011

> <glide hbond>
-1.17690821361979

> <glide metal>
0

> <glide rewards>
-1.03178140199607

> <glide evdw>
-29.5565643310547

> <glide ecoul>
-15.6197748184204

> <glide erotb>
0.441283067400208

> <glide esite>
-0.00118721484372398

> <glide emodel>
-55.2096292433232

> <glide energy>
-45.1763391494751

> <glide einternal>
3.19926925840264e-07

> <glide confnum>
2

> <glide posenum>
3

> <glide eff state penalty>
0

> <glide rmsd>
0.0403774806758088

> <core constrain type>
snapped_core_restrain

> <subgroup title>
constraint-docking_pv1

> <subgroupid>
constraint-docking_pv1

> <subgroup collapsed>
0

$$$$
