43669
                    3D
 Schrodinger Suite 2021-2.
 51 55  0  0  1  0            999 V2000
   42.8077   36.8865   73.8511 C   0  0  0  0  0  0
   43.3325   36.0920   72.6715 C   0  0  0  0  0  0
   42.5403   35.1081   72.0561 C   0  0  0  0  0  0
   43.1298   34.4187   70.9822 C   0  0  0  0  0  0
   42.3731   33.3177   70.2615 C   0  0  0  0  0  0
   44.3851   34.6976   70.5568 N   0  0  0  0  0  0
   45.0623   35.6455   71.2231 C   0  0  0  0  0  0
   44.5944   36.3541   72.2603 N   0  0  0  0  0  0
   46.3679   35.9239   70.8058 N   0  0  0  0  0  0
   47.0172   35.2763   69.6754 C   0  0  0  0  0  0
   48.4536   35.8270   69.5781 C   0  0  1  0  0  0
   48.6845   36.7552   68.3760 C   0  0  0  0  0  0
   48.4619   38.1079   68.8856 N   0  0  0  0  0  0
   48.9175   38.1220   70.2744 C   0  0  0  0  0  0
   48.6502   36.7070   70.8159 C   0  0  1  0  0  0
   47.3606   36.5767   71.6456 C   0  0  0  0  0  0
   47.5442   38.9797   68.4062 C   0  0  0  0  0  0
   47.1029   39.9258   69.0633 O   0  0  0  0  0  0
   46.9991   38.7336   67.0278 C   0  0  0  0  0  0
   45.6308   38.4063   66.9093 C   0  0  0  0  0  0
   45.1032   38.0812   65.6451 C   0  0  0  0  0  0
   45.9607   38.1384   64.5359 C   0  0  0  0  0  0
   47.2584   38.4788   64.6293 N   0  0  0  0  0  0
   47.7945   38.7604   65.8433 C   0  0  0  0  0  0
   49.1962   39.0414   65.8394 N   0  0  0  0  0  0
   49.7867   40.0233   66.5828 N   0  0  0  0  0  0
   51.0440   39.9479   66.2320 C   0  0  0  0  0  0
   51.2081   38.9156   65.2762 C   0  0  0  0  0  0
   50.0555   38.3464   65.0379 N   0  0  0  0  0  0
   41.7507   36.7026   74.0337 H   0  0  0  0  0  0
   43.3548   36.6247   74.7568 H   0  0  0  0  0  0
   42.9405   37.9539   73.6778 H   0  0  0  0  0  0
   41.5395   34.8869   72.3942 H   0  0  0  0  0  0
   41.4983   32.9894   70.8235 H   0  0  0  0  0  0
   42.0243   33.6897   69.2936 H   0  0  0  0  0  0
   43.0213   32.4644   70.0756 H   0  0  0  0  0  0
   46.4490   35.4656   68.7644 H   0  0  0  0  0  0
   47.0289   34.1945   69.8270 H   0  0  0  0  0  0
   49.1677   35.0013   69.5507 H   0  0  0  0  0  0
   48.0533   36.4689   67.5348 H   0  0  0  0  0  0
   49.7187   36.6884   68.0352 H   0  0  0  0  0  0
   48.4447   38.8844   70.8935 H   0  0  0  0  0  0
   49.9887   38.3323   70.2751 H   0  0  0  0  0  0
   49.5018   36.3724   71.4087 H   0  0  0  0  0  0
   47.5434   35.9531   72.5190 H   0  0  0  0  0  0
   47.0106   37.5435   72.0077 H   0  0  0  0  0  0
   44.9967   38.3608   67.7790 H   0  0  0  0  0  0
   44.0658   37.7919   65.5372 H   0  0  0  0  0  0
   45.5959   37.9068   63.5474 H   0  0  0  0  0  0
   51.7864   40.6133   66.6539 H   0  0  0  0  0  0
   52.1119   38.5906   64.7781 H   0  0  0  0  0  0
  1  2  1  0  0  0
  1 30  1  0  0  0
  1 31  1  0  0  0
  1 32  1  0  0  0
  2  3  2  0  0  0
  2  8  1  0  0  0
  3  4  1  0  0  0
  3 33  1  0  0  0
  4  5  1  0  0  0
  4  6  2  0  0  0
  5 34  1  0  0  0
  5 35  1  0  0  0
  5 36  1  0  0  0
  6  7  1  0  0  0
  7  8  2  0  0  0
  7  9  1  0  0  0
  9 10  1  0  0  0
  9 16  1  0  0  0
 10 11  1  0  0  0
 10 37  1  0  0  0
 10 38  1  0  0  0
 11 12  1  0  0  0
 11 15  1  0  0  0
 11 39  1  0  0  0
 12 13  1  0  0  0
 12 40  1  0  0  0
 12 41  1  0  0  0
 13 14  1  0  0  0
 13 17  1  0  0  0
 14 15  1  0  0  0
 14 42  1  0  0  0
 14 43  1  0  0  0
 15 16  1  0  0  0
 15 44  1  0  0  0
 16 45  1  0  0  0
 16 46  1  0  0  0
 17 18  2  0  0  0
 17 19  1  0  0  0
 19 20  2  0  0  0
 19 24  1  0  0  0
 20 21  1  0  0  0
 20 47  1  0  0  0
 21 22  2  0  0  0
 21 48  1  0  0  0
 22 23  1  0  0  0
 22 49  1  0  0  0
 23 24  2  0  0  0
 24 25  1  0  0  0
 25 26  1  0  0  0
 25 29  1  0  0  0
 26 27  2  0  0  0
 27 28  1  0  0  0
 27 50  1  0  0  0
 28 29  2  0  0  0
 28 51  1  0  0  0
M  END
> <entry id>
63

> <entry name>
OX2_Set2_JOB19_Ligs.20

> <Source Path>
C:\shenshi\GPCR\OX2_fep\ci0c00449_si_002\SI_DataSet_Inputs

> <Source File>
OX2_Set2_JOB19_Ligs.sdf

> <Source File Index>
20

> <HCRTR2_C pKi>
6.6143

> <job name>
constraint-docking

> <glide gridfile>
glide-grid_1

> <glide lignum>
20

> <glide rotatable bonds>
4

> <docking score>
-9.12121795602824

> <glide ligand efficiency>
-0.314524757104422

> <glide ligand efficiency sa>
-0.966319702262042

> <glide ligand efficiency ln>
-2.08852761779971

> <glide gscore>
-9.12121795602824

> <glide lipo>
-2.07122267674508

> <glide hbond>
-1.18111079471366

> <glide metal>
0

> <glide rewards>
-1.44253962773405

> <glide evdw>
-46.1818656921387

> <glide ecoul>
-17.5184555053711

> <glide erotb>
0.511779082608734

> <glide esite>
-0.00126232903158381

> <glide emodel>
-97.244951810789

> <glide energy>
-63.7003211975098

> <glide einternal>
0.829411268234253

> <glide confnum>
37

> <glide posenum>
63

> <glide eff state penalty>
0

> <glide rmsd>
0.0428199696990976

> <core constrain type>
snapped_core_restrain

> <subgroup title>
constraint-docking_pv1

> <subgroupid>
constraint-docking_pv1

> <subgroup collapsed>
0

$$$$
