44967
                    3D
 Schrodinger Suite 2021-2.
 55 59  0  0  1  0            999 V2000
   42.3979   33.3171   70.2651 C   0  0  0  0  0  0
   43.1411   34.4254   70.9810 C   0  0  0  0  0  0
   42.5555   35.1056   72.0574 C   0  0  0  0  0  0
   43.3383   36.0928   72.6730 C   0  0  0  0  0  0
   42.8070   36.8830   73.8504 C   0  0  0  0  0  0
   44.6014   36.3645   72.2645 N   0  0  0  0  0  0
   45.0746   35.6568   71.2238 C   0  0  0  0  0  0
   44.3968   34.7048   70.5548 N   0  0  0  0  0  0
   46.3787   35.9281   70.8119 N   0  0  0  0  0  0
   47.0323   35.2887   69.6758 C   0  0  0  0  0  0
   48.4698   35.8329   69.5762 C   0  0  1  0  0  0
   48.7046   36.7683   68.3809 C   0  0  0  0  0  0
   48.4761   38.1211   68.9000 N   0  0  0  0  0  0
   48.9470   38.1230   70.2851 C   0  0  0  0  0  0
   48.6751   36.7049   70.8160 C   0  0  1  0  0  0
   47.3851   36.5763   71.6442 C   0  0  0  0  0  0
   47.5273   38.9627   68.4484 C   0  0  0  0  0  0
   47.0885   39.9124   69.1186 O   0  0  0  0  0  0
   46.9795   38.7374   67.0709 C   0  0  0  0  0  0
   45.6078   38.4103   66.9473 C   0  0  0  0  0  0
   45.0325   38.1611   65.6967 C   0  0  0  0  0  0
   45.7990   38.3035   64.5309 C   0  0  0  0  0  0
   47.1583   38.6650   64.6262 C   0  0  0  0  0  0
   47.9182   38.8684   63.3310 C   0  0  0  0  0  0
   47.7772   38.8448   65.8827 C   0  0  0  0  0  0
   49.1788   39.0993   65.9163 N   0  0  0  0  0  0
   50.0470   38.3733   65.1642 N   0  0  0  0  0  0
   51.1967   38.9480   65.3949 C   0  0  0  0  0  0
   51.0290   39.9981   66.3099 C   0  0  0  0  0  0
   49.7650   40.0790   66.6446 N   0  0  0  0  0  0
   41.4604   33.0840   70.7718 H   0  0  0  0  0  0
   42.1717   33.6076   69.2372 H   0  0  0  0  0  0
   42.9997   32.4100   70.2312 H   0  0  0  0  0  0
   41.5500   34.8812   72.3952 H   0  0  0  0  0  0
   41.7878   36.5778   74.0983 H   0  0  0  0  0  0
   43.4292   36.7322   74.7352 H   0  0  0  0  0  0
   42.7894   37.9520   73.6287 H   0  0  0  0  0  0
   46.4597   35.4938   68.7771 H   0  0  0  0  0  0
   47.0363   34.2120   69.8170 H   0  0  0  0  0  0
   49.1824   35.0025   69.5535 H   0  0  0  0  0  0
   48.1140   36.4827   67.5023 H   0  0  0  0  0  0
   49.7500   36.7167   68.0826 H   0  0  0  0  0  0
   48.5197   38.9054   70.9244 H   0  0  0  0  0  0
   50.0214   38.2949   70.2586 H   0  0  0  0  0  0
   49.5227   36.3541   71.4086 H   0  0  0  0  0  0
   47.5593   35.9709   72.5284 H   0  0  0  0  0  0
   47.0263   37.5387   71.9921 H   0  0  0  0  0  0
   44.9895   38.3217   67.8331 H   0  0  0  0  0  0
   43.9908   37.8897   65.6166 H   0  0  0  0  0  0
   45.3404   38.1401   63.5700 H   0  0  0  0  0  0
   48.4464   39.8254   63.3273 H   0  0  0  0  0  0
   48.6684   38.1015   63.2731 H   0  0  0  0  0  0
   47.2870   38.8137   62.4586 H   0  0  0  0  0  0
   52.1087   38.5991   64.9144 H   0  0  0  0  0  0
   51.7657   40.6647   66.7177 H   0  0  0  0  0  0
  1  2  1  0  0  0
  1 31  1  0  0  0
  1 32  1  0  0  0
  1 33  1  0  0  0
  2  3  2  0  0  0
  2  8  1  0  0  0
  3  4  1  0  0  0
  3 34  1  0  0  0
  4  5  1  0  0  0
  4  6  2  0  0  0
  5 35  1  0  0  0
  5 36  1  0  0  0
  5 37  1  0  0  0
  6  7  1  0  0  0
  7  8  2  0  0  0
  7  9  1  0  0  0
  9 10  1  0  0  0
  9 16  1  0  0  0
 10 11  1  0  0  0
 10 38  1  0  0  0
 10 39  1  0  0  0
 11 12  1  0  0  0
 11 15  1  0  0  0
 11 40  1  0  0  0
 12 13  1  0  0  0
 12 41  1  0  0  0
 12 42  1  0  0  0
 13 14  1  0  0  0
 13 17  1  0  0  0
 14 15  1  0  0  0
 14 43  1  0  0  0
 14 44  1  0  0  0
 15 16  1  0  0  0
 15 45  1  0  0  0
 16 46  1  0  0  0
 16 47  1  0  0  0
 17 18  2  0  0  0
 17 19  1  0  0  0
 19 20  2  0  0  0
 19 25  1  0  0  0
 20 21  1  0  0  0
 20 48  1  0  0  0
 21 22  2  0  0  0
 21 49  1  0  0  0
 22 23  1  0  0  0
 22 50  1  0  0  0
 23 24  1  0  0  0
 23 25  2  0  0  0
 24 51  1  0  0  0
 24 52  1  0  0  0
 24 53  1  0  0  0
 25 26  1  0  0  0
 26 27  1  0  0  0
 26 30  1  0  0  0
 27 28  2  0  0  0
 28 29  1  0  0  0
 28 54  1  0  0  0
 29 30  2  0  0  0
 29 55  1  0  0  0
M  END
> <entry id>
57

> <entry name>
OX2_Set2_JOB19_Ligs.17

> <Source Path>
C:\shenshi\GPCR\OX2_fep\ci0c00449_si_002\SI_DataSet_Inputs

> <Source File>
OX2_Set2_JOB19_Ligs.sdf

> <Source File Index>
17

> <HCRTR2_C pKi>
6.9415

> <job name>
constraint-docking

> <glide gridfile>
glide-grid_1

> <glide lignum>
17

> <glide rotatable bonds>
4

> <docking score>
-9.46290780054835

> <glide ligand efficiency>
-0.315430260018278

> <glide ligand efficiency sa>
-0.980115156179084

> <glide ligand efficiency ln>
-2.15007575892327

> <glide gscore>
-9.46290780054835

> <glide lipo>
-2.61338796458385

> <glide hbond>
-1.17383032321924

> <glide metal>
0

> <glide rewards>
-1.17786943383669

> <glide evdw>
-46.4429550170898

> <glide ecoul>
-17.7081985473633

> <glide erotb>
0.482415721039915

> <glide esite>
-0.00185826698950812

> <glide emodel>
-109.669366108792

> <glide energy>
-64.1511535644531

> <glide einternal>
-1.43833403853932e-06

> <glide confnum>
2

> <glide posenum>
2

> <glide eff state penalty>
0

> <glide rmsd>
0.0383945532004524

> <core constrain type>
snapped_core_restrain

> <subgroup title>
constraint-docking_pv1

> <subgroupid>
constraint-docking_pv1

> <subgroup collapsed>
0

$$$$
