45323
                    3D
 Schrodinger Suite 2021-2.
 52 56  0  0  1  0            999 V2000
   42.3885   33.3224   70.2642 C   0  0  0  0  0  0
   43.1347   34.4255   70.9792 C   0  0  0  0  0  0
   42.5438   35.1117   72.0601 C   0  0  0  0  0  0
   43.3372   36.0978   72.6723 C   0  0  0  0  0  0
   42.8084   36.8901   73.8467 C   0  0  0  0  0  0
   44.6010   36.3617   72.2611 N   0  0  0  0  0  0
   45.0624   35.6535   71.2236 C   0  0  0  0  0  0
   44.3896   34.7114   70.5541 N   0  0  0  0  0  0
   46.3819   35.9393   70.7963 N   0  0  0  0  0  0
   47.0323   35.2850   69.6718 C   0  0  0  0  0  0
   48.4657   35.8375   69.5579 C   0  0  1  0  0  0
   48.6800   36.7773   68.3596 C   0  0  0  0  0  0
   48.4571   38.1188   68.8952 N   0  0  0  0  0  0
   48.9104   38.1347   70.2789 C   0  0  0  0  0  0
   48.6744   36.7049   70.7975 C   0  0  1  0  0  0
   47.3981   36.5397   71.6428 C   0  0  0  0  0  0
   47.5246   38.9836   68.4268 C   0  0  0  0  0  0
   47.1055   39.9429   69.0848 O   0  0  0  0  0  0
   46.9761   38.7498   67.0466 C   0  0  0  0  0  0
   45.6061   38.4336   66.9159 C   0  0  0  0  0  0
   45.0438   38.1703   65.6510 C   0  0  0  0  0  0
   43.7401   37.8746   65.5374 F   0  0  0  0  0  0
   45.8439   38.2530   64.4987 C   0  0  0  0  0  0
   45.3218   38.0204   63.2763 F   0  0  0  0  0  0
   47.1946   38.5780   64.6122 C   0  0  0  0  0  0
   47.7879   38.8216   65.8748 C   0  0  0  0  0  0
   49.1754   39.0865   65.8811 N   0  0  0  0  0  0
   50.0353   38.3859   65.0932 N   0  0  0  0  0  0
   51.1895   38.9354   65.3423 C   0  0  0  0  0  0
   51.0143   39.9996   66.2623 C   0  0  0  0  0  0
   49.7635   40.0787   66.6006 N   0  0  0  0  0  0
   42.0578   33.6704   69.2836 H   0  0  0  0  0  0
   43.0335   32.4539   70.1153 H   0  0  0  0  0  0
   41.5092   33.0025   70.8265 H   0  0  0  0  0  0
   41.5514   34.8897   72.4152 H   0  0  0  0  0  0
   41.7453   36.6993   74.0027 H   0  0  0  0  0  0
   43.3412   36.6135   74.7585 H   0  0  0  0  0  0
   42.9460   37.9584   73.6809 H   0  0  0  0  0  0
   46.4839   35.4641   68.7517 H   0  0  0  0  0  0
   47.0628   34.2120   69.8469 H   0  0  0  0  0  0
   49.1673   35.0045   69.5297 H   0  0  0  0  0  0
   48.0282   36.5120   67.5262 H   0  0  0  0  0  0
   49.7070   36.7078   67.9991 H   0  0  0  0  0  0
   48.3915   38.8873   70.8747 H   0  0  0  0  0  0
   49.9719   38.3870   70.2907 H   0  0  0  0  0  0
   49.5391   36.3845   71.3730 H   0  0  0  0  0  0
   47.5892   35.8750   72.4835 H   0  0  0  0  0  0
   47.0703   37.4942   72.0462 H   0  0  0  0  0  0
   44.9759   38.3941   67.7881 H   0  0  0  0  0  0
   47.7660   38.6143   63.6996 H   0  0  0  0  0  0
   52.1024   38.5630   64.9099 H   0  0  0  0  0  0
   51.7295   40.7337   66.5876 H   0  0  0  0  0  0
  1  2  1  0  0  0
  1 32  1  0  0  0
  1 33  1  0  0  0
  1 34  1  0  0  0
  2  3  2  0  0  0
  2  8  1  0  0  0
  3  4  1  0  0  0
  3 35  1  0  0  0
  4  5  1  0  0  0
  4  6  2  0  0  0
  5 36  1  0  0  0
  5 37  1  0  0  0
  5 38  1  0  0  0
  6  7  1  0  0  0
  7  8  2  0  0  0
  7  9  1  0  0  0
  9 10  1  0  0  0
  9 16  1  0  0  0
 10 11  1  0  0  0
 10 39  1  0  0  0
 10 40  1  0  0  0
 11 12  1  0  0  0
 11 15  1  0  0  0
 11 41  1  0  0  0
 12 13  1  0  0  0
 12 42  1  0  0  0
 12 43  1  0  0  0
 13 14  1  0  0  0
 13 17  1  0  0  0
 14 15  1  0  0  0
 14 44  1  0  0  0
 14 45  1  0  0  0
 15 16  1  0  0  0
 15 46  1  0  0  0
 16 47  1  0  0  0
 16 48  1  0  0  0
 17 18  2  0  0  0
 17 19  1  0  0  0
 19 20  2  0  0  0
 19 26  1  0  0  0
 20 21  1  0  0  0
 20 49  1  0  0  0
 21 22  1  0  0  0
 21 23  2  0  0  0
 23 24  1  0  0  0
 23 25  1  0  0  0
 25 26  2  0  0  0
 25 50  1  0  0  0
 26 27  1  0  0  0
 27 28  1  0  0  0
 27 31  1  0  0  0
 28 29  2  0  0  0
 29 30  1  0  0  0
 29 51  1  0  0  0
 30 31  2  0  0  0
 30 52  1  0  0  0
M  END
> <entry id>
68

> <entry name>
OX2_Set2_JOB19_Ligs.19

> <Source Path>
C:\shenshi\GPCR\OX2_fep\ci0c00449_si_002\SI_DataSet_Inputs

> <Source File>
OX2_Set2_JOB19_Ligs.sdf

> <Source File Index>
19

> <HCRTR2_C pKi>
6.8962

> <job name>
constraint-docking

> <glide gridfile>
glide-grid_1

> <glide lignum>
19

> <glide rotatable bonds>
4

> <docking score>
-8.76268746254578

> <glide ligand efficiency>
-0.282667337501477

> <glide ligand efficiency sa>
-0.887965704073706

> <glide ligand efficiency ln>
-1.97625456692387

> <glide gscore>
-8.76268746254578

> <glide lipo>
-2.35451028282254

> <glide hbond>
-1.18971881362542

> <glide metal>
0

> <glide rewards>
-1.04388364526033

> <glide evdw>
-45.6430435180664

> <glide ecoul>
-15.1379642486572

> <glide erotb>
0.438404193912074

> <glide esite>
-0.0601321015476741

> <glide emodel>
-101.305561245571

> <glide energy>
-60.7810077667236

> <glide einternal>
8.9795770463752e-07

> <glide confnum>
2

> <glide posenum>
4

> <glide eff state penalty>
0

> <glide rmsd>
0.0364003912984867

> <core constrain type>
snapped_core_restrain

> <subgroup title>
constraint-docking_pv1

> <subgroupid>
constraint-docking_pv1

> <subgroup collapsed>
0

$$$$
