46163
                    3D
 Schrodinger Suite 2021-2.
 54 58  0  0  1  0            999 V2000
   45.6846   37.9973   63.1166 C   0  0  0  0  0  0
   46.1030   38.2284   64.5393 C   0  0  0  0  0  0
   45.2234   38.0269   65.6182 C   0  0  0  0  0  0
   45.6862   38.2954   66.9151 C   0  0  0  0  0  0
   47.0011   38.7570   67.0723 C   0  0  0  0  0  0
   47.5314   38.9942   68.4604 C   0  0  0  0  0  0
   47.1105   39.9493   69.1113 O   0  0  0  0  0  0
   48.4681   38.1245   68.9183 N   0  0  0  0  0  0
   48.9361   38.1313   70.3035 C   0  0  0  0  0  0
   48.6743   36.7043   70.8193 C   0  0  1  0  0  0
   47.3830   36.5682   71.6471 C   0  0  0  0  0  0
   46.3851   35.9270   70.8073 N   0  0  0  0  0  0
   47.0383   35.2839   69.6795 C   0  0  0  0  0  0
   48.4711   35.8415   69.5796 C   0  0  1  0  0  0
   48.6857   36.7785   68.3829 C   0  0  0  0  0  0
   45.0757   35.6526   71.2180 C   0  0  0  0  0  0
   44.6004   36.3667   72.2516 N   0  0  0  0  0  0
   43.3419   36.0947   72.6639 C   0  0  0  0  0  0
   42.8040   36.8979   73.8309 C   0  0  0  0  0  0
   42.5580   35.1029   72.0521 C   0  0  0  0  0  0
   43.1473   34.4174   70.9755 C   0  0  0  0  0  0
   42.3958   33.3112   70.2611 C   0  0  0  0  0  0
   44.4028   34.7016   70.5509 N   0  0  0  0  0  0
   47.8242   38.9556   65.9251 C   0  0  0  0  0  0
   47.3603   38.6743   64.6864 N   0  0  0  0  0  0
   49.1496   39.5036   66.0087 N   0  0  0  0  0  0
   49.6159   40.3612   65.0602 N   0  0  0  0  0  0
   50.7880   40.7165   65.5172 C   0  0  0  0  0  0
   51.0447   40.0528   66.7220 C   0  0  0  0  0  0
   50.0503   39.2674   67.0055 N   0  0  0  0  0  0
   44.6628   37.6180   63.0476 H   0  0  0  0  0  0
   45.7555   38.9506   62.5861 H   0  0  0  0  0  0
   46.3572   37.2933   62.6277 H   0  0  0  0  0  0
   44.2146   37.6787   65.4625 H   0  0  0  0  0  0
   45.0502   38.1482   67.7714 H   0  0  0  0  0  0
   48.4656   38.8976   70.9258 H   0  0  0  0  0  0
   50.0060   38.3421   70.3018 H   0  0  0  0  0  0
   49.5157   36.3246   71.3944 H   0  0  0  0  0  0
   47.0254   37.5319   72.0081 H   0  0  0  0  0  0
   47.5558   35.9421   72.5224 H   0  0  0  0  0  0
   46.4883   35.4553   68.7574 H   0  0  0  0  0  0
   47.0602   34.2091   69.8445 H   0  0  0  0  0  0
   49.1805   35.0098   69.5582 H   0  0  0  0  0  0
   49.7127   36.7029   68.0234 H   0  0  0  0  0  0
   48.0288   36.5229   67.5541 H   0  0  0  0  0  0
   43.5631   37.5950   74.2041 H   0  0  0  0  0  0
   41.9410   37.4742   73.5184 H   0  0  0  0  0  0
   42.5232   36.2372   74.6457 H   0  0  0  0  0  0
   41.5607   34.8868   72.3970 H   0  0  0  0  0  0
   41.8641   33.7204   69.3989 H   0  0  0  0  0  0
   43.0849   32.5482   69.8959 H   0  0  0  0  0  0
   41.6760   32.8362   70.9206 H   0  0  0  0  0  0
   51.4174   41.4242   64.9948 H   0  0  0  0  0  0
   51.9169   40.1270   67.3420 H   0  0  0  0  0  0
  1  2  1  0  0  0
  1 31  1  0  0  0
  1 32  1  0  0  0
  1 33  1  0  0  0
  2  3  2  0  0  0
  2 25  1  0  0  0
  3  4  1  0  0  0
  3 34  1  0  0  0
  4  5  2  0  0  0
  4 35  1  0  0  0
  5  6  1  0  0  0
  5 24  1  0  0  0
  6  7  2  0  0  0
  6  8  1  0  0  0
  8  9  1  0  0  0
  8 15  1  0  0  0
  9 10  1  0  0  0
  9 36  1  0  0  0
  9 37  1  0  0  0
 10 11  1  0  0  0
 10 14  1  0  0  0
 10 38  1  0  0  0
 11 12  1  0  0  0
 11 39  1  0  0  0
 11 40  1  0  0  0
 12 13  1  0  0  0
 12 16  1  0  0  0
 13 14  1  0  0  0
 13 41  1  0  0  0
 13 42  1  0  0  0
 14 15  1  0  0  0
 14 43  1  0  0  0
 15 44  1  0  0  0
 15 45  1  0  0  0
 16 17  2  0  0  0
 16 23  1  0  0  0
 17 18  1  0  0  0
 18 19  1  0  0  0
 18 20  2  0  0  0
 19 46  1  0  0  0
 19 47  1  0  0  0
 19 48  1  0  0  0
 20 21  1  0  0  0
 20 49  1  0  0  0
 21 22  1  0  0  0
 21 23  2  0  0  0
 22 50  1  0  0  0
 22 51  1  0  0  0
 22 52  1  0  0  0
 24 25  2  0  0  0
 24 26  1  0  0  0
 26 27  1  0  0  0
 26 30  1  0  0  0
 27 28  2  0  0  0
 28 29  1  0  0  0
 28 53  1  0  0  0
 29 30  2  0  0  0
 29 54  1  0  0  0
M  END
> <entry id>
69

> <entry name>
OX2_Set2_JOB19_Ligs.21

> <Source Path>
C:\shenshi\GPCR\OX2_fep\ci0c00449_si_002\SI_DataSet_Inputs

> <Source File>
OX2_Set2_JOB19_Ligs.sdf

> <Source File Index>
21

> <HCRTR2_C pKi>
6.3125

> <job name>
constraint-docking

> <glide gridfile>
glide-grid_1

> <glide lignum>
21

> <glide rotatable bonds>
4

> <docking score>
-8.74986876451801

> <glide ligand efficiency>
-0.2916622921506

> <glide ligand efficiency sa>
-0.906262553903897

> <glide ligand efficiency ln>
-1.98806552075461

> <glide gscore>
-8.74986876451801

> <glide lipo>
-2.35091010246765

> <glide hbond>
-0.812525849189716

> <glide metal>
0

> <glide rewards>
-1.44595695483728

> <glide evdw>
-46.6378021240234

> <glide ecoul>
-15.2508592605591

> <glide erotb>
0.480294686830354

> <glide esite>
-0.00125154956868177

> <glide emodel>
-89.9360247292367

> <glide energy>
-61.8886613845825

> <glide einternal>
3.51191639900208

> <glide confnum>
57

> <glide posenum>
58

> <glide eff state penalty>
0

> <glide rmsd>
0.040389387714125

> <core constrain type>
snapped_core_restrain

> <subgroup title>
constraint-docking_pv1

> <subgroupid>
constraint-docking_pv1

> <subgroup collapsed>
0

$$$$
