46810
                    3D
 Schrodinger Suite 2021-2.
 51 55  0  0  1  0            999 V2000
   42.8086   36.8972   73.8442 C   0  0  0  0  0  0
   43.3406   36.1001   72.6718 C   0  0  0  0  0  0
   42.5547   35.1121   72.0566 C   0  0  0  0  0  0
   43.1437   34.4274   70.9803 C   0  0  0  0  0  0
   42.3915   33.3229   70.2672 C   0  0  0  0  0  0
   44.3987   34.7050   70.5586 N   0  0  0  0  0  0
   45.0709   35.6541   71.2253 C   0  0  0  0  0  0
   44.6021   36.3638   72.2632 N   0  0  0  0  0  0
   46.3796   35.9216   70.8149 N   0  0  0  0  0  0
   47.3797   36.5598   71.6569 C   0  0  0  0  0  0
   48.6625   36.7007   70.8174 C   0  0  2  0  0  0
   48.9248   38.1215   70.2860 C   0  0  0  0  0  0
   48.4589   38.1182   68.9003 N   0  0  0  0  0  0
   48.6830   36.7683   68.3777 C   0  0  0  0  0  0
   48.4545   35.8309   69.5744 C   0  0  2  0  0  0
   47.0188   35.2793   69.6761 C   0  0  0  0  0  0
   47.5328   38.9955   68.4421 C   0  0  0  0  0  0
   47.1294   39.9605   69.0986 O   0  0  0  0  0  0
   46.9536   38.7475   67.0759 C   0  0  0  0  0  0
   45.6419   38.4092   67.0766 N   0  0  0  0  0  0
   45.0479   38.0790   65.9133 C   0  0  0  0  0  0
   45.7178   38.1164   64.6791 C   0  0  0  0  0  0
   47.0747   38.4874   64.6665 C   0  0  0  0  0  0
   47.7289   38.8060   65.8796 C   0  0  0  0  0  0
   49.1176   39.1187   65.8423 N   0  0  0  0  0  0
   49.9668   38.4606   65.0099 N   0  0  0  0  0  0
   51.1253   39.0058   65.2759 C   0  0  0  0  0  0
   50.9683   40.0143   66.2505 C   0  0  0  0  0  0
   49.7117   40.0789   66.6061 N   0  0  0  0  0  0
   41.7186   36.8806   73.8593 H   0  0  0  0  0  0
   43.1689   36.4794   74.7849 H   0  0  0  0  0  0
   43.1335   37.9368   73.7870 H   0  0  0  0  0  0
   41.5530   34.8875   72.3922 H   0  0  0  0  0  0
   41.3157   33.4786   70.3441 H   0  0  0  0  0  0
   42.6439   33.2916   69.2088 H   0  0  0  0  0  0
   42.6328   32.3571   70.7074 H   0  0  0  0  0  0
   47.5617   35.9268   72.5259 H   0  0  0  0  0  0
   47.0284   37.5240   72.0256 H   0  0  0  0  0  0
   49.5190   36.3625   71.4002 H   0  0  0  0  0  0
   49.9955   38.3291   70.2815 H   0  0  0  0  0  0
   48.4623   38.8812   70.9174 H   0  0  0  0  0  0
   49.7194   36.7069   68.0425 H   0  0  0  0  0  0
   48.0615   36.4799   67.5294 H   0  0  0  0  0  0
   49.1627   35.0015   69.5413 H   0  0  0  0  0  0
   46.4424   35.4796   68.7725 H   0  0  0  0  0  0
   47.0385   34.1983   69.8205 H   0  0  0  0  0  0
   44.0045   37.8060   65.9640 H   0  0  0  0  0  0
   45.2047   37.8581   63.7640 H   0  0  0  0  0  0
   47.6083   38.5155   63.7269 H   0  0  0  0  0  0
   52.0243   38.6897   64.7660 H   0  0  0  0  0  0
   51.7121   40.6652   66.6878 H   0  0  0  0  0  0
  1  2  1  0  0  0
  1 30  1  0  0  0
  1 31  1  0  0  0
  1 32  1  0  0  0
  2  3  2  0  0  0
  2  8  1  0  0  0
  3  4  1  0  0  0
  3 33  1  0  0  0
  4  5  1  0  0  0
  4  6  2  0  0  0
  5 34  1  0  0  0
  5 35  1  0  0  0
  5 36  1  0  0  0
  6  7  1  0  0  0
  7  8  2  0  0  0
  7  9  1  0  0  0
  9 10  1  0  0  0
  9 16  1  0  0  0
 10 11  1  0  0  0
 10 37  1  0  0  0
 10 38  1  0  0  0
 11 12  1  0  0  0
 11 15  1  0  0  0
 11 39  1  0  0  0
 12 13  1  0  0  0
 12 40  1  0  0  0
 12 41  1  0  0  0
 13 14  1  0  0  0
 13 17  1  0  0  0
 14 15  1  0  0  0
 14 42  1  0  0  0
 14 43  1  0  0  0
 15 16  1  0  0  0
 15 44  1  0  0  0
 16 45  1  0  0  0
 16 46  1  0  0  0
 17 18  2  0  0  0
 17 19  1  0  0  0
 19 20  2  0  0  0
 19 24  1  0  0  0
 20 21  1  0  0  0
 21 22  2  0  0  0
 21 47  1  0  0  0
 22 23  1  0  0  0
 22 48  1  0  0  0
 23 24  2  0  0  0
 23 49  1  0  0  0
 24 25  1  0  0  0
 25 26  1  0  0  0
 25 29  1  0  0  0
 26 27  2  0  0  0
 27 28  1  0  0  0
 27 50  1  0  0  0
 28 29  2  0  0  0
 28 51  1  0  0  0
M  END
> <entry id>
64

> <entry name>
OX2_Set2_JOB19_Ligs.16

> <Source Path>
C:\shenshi\GPCR\OX2_fep\ci0c00449_si_002\SI_DataSet_Inputs

> <Source File>
OX2_Set2_JOB19_Ligs.sdf

> <Source File Index>
16

> <HCRTR2_C pKi>
6.9431

> <job name>
constraint-docking

> <glide gridfile>
glide-grid_1

> <glide lignum>
16

> <glide rotatable bonds>
4

> <docking score>
-9.05217940843379

> <glide ligand efficiency>
-0.3121441175322

> <glide ligand efficiency sa>
-0.959005623256619

> <glide ligand efficiency ln>
-2.07271954106709

> <glide gscore>
-9.05217940843379

> <glide lipo>
-2.23991541388428

> <glide hbond>
-1.18078669075687

> <glide metal>
0

> <glide rewards>
-1.28402981269225

> <glide evdw>
-46.0380516052246

> <glide ecoul>
-17.036714553833

> <glide erotb>
0.511779082608734

> <glide esite>
-0.00181681037294182

> <glide emodel>
-96.9408209817614

> <glide energy>
-63.0747661590576

> <glide einternal>
0.16278138756752

> <glide confnum>
31

> <glide posenum>
34

> <glide eff state penalty>
0

> <glide rmsd>
0.041806570162645

> <core constrain type>
snapped_core_restrain

> <subgroup title>
constraint-docking_pv1

> <subgroupid>
constraint-docking_pv1

> <subgroup collapsed>
0

$$$$
