48274
                    3D
 Schrodinger Suite 2021-2.
 56 60  0  0  1  0            999 V2000
   43.9652   37.3616   63.4047 C   0  0  0  0  0  0
   45.3056   37.8340   63.3311 O   0  0  0  0  0  0
   45.8178   38.2524   64.5228 C   0  0  0  0  0  0
   45.0441   38.1879   65.7044 C   0  0  0  0  0  0
   45.6162   38.4417   66.9490 C   0  0  0  0  0  0
   46.9837   38.7625   67.0576 C   0  0  0  0  0  0
   47.5297   38.9967   68.4245 C   0  0  0  0  0  0
   47.0972   39.9415   69.0992 O   0  0  0  0  0  0
   48.4570   38.1225   68.8907 N   0  0  0  0  0  0
   48.6503   36.7718   68.3640 C   0  0  0  0  0  0
   48.4489   35.8372   69.5685 C   0  0  2  0  0  0
   47.0169   35.2764   69.6758 C   0  0  0  0  0  0
   46.3711   35.9227   70.8036 N   0  0  0  0  0  0
   47.3678   36.5801   71.6384 C   0  0  0  0  0  0
   48.6497   36.7110   70.8086 C   0  0  2  0  0  0
   48.9316   38.1262   70.2679 C   0  0  0  0  0  0
   45.0636   35.6489   71.2171 C   0  0  0  0  0  0
   44.5944   36.3554   72.2613 N   0  0  0  0  0  0
   43.3351   36.0743   72.6736 C   0  0  0  0  0  0
   42.7959   36.8656   73.8578 C   0  0  0  0  0  0
   42.5525   35.0801   72.0622 C   0  0  0  0  0  0
   43.1411   34.4029   70.9837 C   0  0  0  0  0  0
   42.3907   33.3048   70.2589 C   0  0  0  0  0  0
   44.4002   34.6965   70.5530 N   0  0  0  0  0  0
   47.7799   38.8374   65.8672 C   0  0  0  0  0  0
   47.1712   38.5914   64.6123 C   0  0  0  0  0  0
   49.1772   39.0781   65.8734 N   0  0  0  0  0  0
   50.0212   38.3755   65.0838 N   0  0  0  0  0  0
   51.1931   38.9065   65.3393 C   0  0  0  0  0  0
   51.0465   39.9443   66.2704 C   0  0  0  0  0  0
   49.7800   40.0476   66.6205 N   0  0  0  0  0  0
   43.6235   36.8791   62.5007 H   0  0  0  0  0  0
   43.8488   36.6505   64.2193 H   0  0  0  0  0  0
   43.3008   38.1852   63.6713 H   0  0  0  0  0  0
   43.9879   37.9763   65.7345 H   0  0  0  0  0  0
   44.9941   38.3787   67.8313 H   0  0  0  0  0  0
   49.6697   36.6826   67.9827 H   0  0  0  0  0  0
   47.9876   36.5105   67.5431 H   0  0  0  0  0  0
   49.1721   35.0189   69.5271 H   0  0  0  0  0  0
   47.0413   34.1983   69.8448 H   0  0  0  0  0  0
   46.4452   35.4585   68.7712 H   0  0  0  0  0  0
   47.5567   35.9618   72.5222 H   0  0  0  0  0  0
   47.0076   37.5523   71.9882 H   0  0  0  0  0  0
   49.5069   36.3754   71.3959 H   0  0  0  0  0  0
   48.4762   38.8927   70.8952 H   0  0  0  0  0  0
   50.0043   38.3148   70.2588 H   0  0  0  0  0  0
   41.7539   36.5983   74.0691 H   0  0  0  0  0  0
   43.3830   36.6498   74.7505 H   0  0  0  0  0  0
   42.8501   37.9390   73.6635 H   0  0  0  0  0  0
   41.5549   34.8413   72.3993 H   0  0  0  0  0  0
   41.5622   32.9250   70.8687 H   0  0  0  0  0  0
   41.9720   33.6810   69.3251 H   0  0  0  0  0  0
   43.0436   32.4605   70.0134 H   0  0  0  0  0  0
   47.7661   38.6270   63.7067 H   0  0  0  0  0  0
   52.1056   38.5722   64.8457 H   0  0  0  0  0  0
   51.7952   40.6073   66.6919 H   0  0  0  0  0  0
  1  2  1  0  0  0
  1 32  1  0  0  0
  1 33  1  0  0  0
  1 34  1  0  0  0
  2  3  1  0  0  0
  3  4  2  0  0  0
  3 26  1  0  0  0
  4  5  1  0  0  0
  4 35  1  0  0  0
  5  6  2  0  0  0
  5 36  1  0  0  0
  6  7  1  0  0  0
  6 25  1  0  0  0
  7  8  2  0  0  0
  7  9  1  0  0  0
  9 10  1  0  0  0
  9 16  1  0  0  0
 10 11  1  0  0  0
 10 37  1  0  0  0
 10 38  1  0  0  0
 11 12  1  0  0  0
 11 15  1  0  0  0
 11 39  1  0  0  0
 12 13  1  0  0  0
 12 40  1  0  0  0
 12 41  1  0  0  0
 13 14  1  0  0  0
 13 17  1  0  0  0
 14 15  1  0  0  0
 14 42  1  0  0  0
 14 43  1  0  0  0
 15 16  1  0  0  0
 15 44  1  0  0  0
 16 45  1  0  0  0
 16 46  1  0  0  0
 17 18  2  0  0  0
 17 24  1  0  0  0
 18 19  1  0  0  0
 19 20  1  0  0  0
 19 21  2  0  0  0
 20 47  1  0  0  0
 20 48  1  0  0  0
 20 49  1  0  0  0
 21 22  1  0  0  0
 21 50  1  0  0  0
 22 23  1  0  0  0
 22 24  2  0  0  0
 23 51  1  0  0  0
 23 52  1  0  0  0
 23 53  1  0  0  0
 25 26  2  0  0  0
 25 27  1  0  0  0
 26 54  1  0  0  0
 27 28  1  0  0  0
 27 31  1  0  0  0
 28 29  2  0  0  0
 29 30  1  0  0  0
 29 55  1  0  0  0
 30 31  2  0  0  0
 30 56  1  0  0  0
M  END
> <entry id>
71

> <entry name>
OX2_Set2_JOB19_Ligs.3

> <Source Path>
C:\shenshi\GPCR\OX2_fep\ci0c00449_si_002\SI_DataSet_Inputs

> <Source File>
OX2_Set2_JOB19_Ligs.sdf

> <Source File Index>
3

> <HCRTR2_C pKi>
7.9553

> <job name>
constraint-docking

> <glide gridfile>
glide-grid_1

> <glide lignum>
3

> <glide rotatable bonds>
5

> <docking score>
-8.28613055431807

> <glide ligand efficiency>
-0.26729453401026

> <glide ligand efficiency sa>
-0.839673876668662

> <glide ligand efficiency ln>
-1.86877637940325

> <glide gscore>
-8.28613055431807

> <glide lipo>
-2.36713408835883

> <glide hbond>
-1.19287653607822

> <glide metal>
0

> <glide rewards>
-1.05576439523781

> <glide evdw>
-33.8998718261719

> <glide ecoul>
-16.9092597961426

> <glide erotb>
0.562155865002407

> <glide esite>
-0.00112883891564105

> <glide emodel>
-53.1714056870047

> <glide energy>
-50.8091316223145

> <glide einternal>
3.37035489082336

> <glide confnum>
8

> <glide posenum>
4

> <glide eff state penalty>
0

> <glide rmsd>
0.0413151449311531

> <core constrain type>
snapped_core_restrain

> <subgroup title>
constraint-docking_pv1

> <subgroupid>
constraint-docking_pv1

> <subgroup collapsed>
0

$$$$
