49074
                    3D
 Schrodinger Suite 2021-2.
 51 55  0  0  1  0            999 V2000
   42.3921   33.3210   70.2681 C   0  0  0  0  0  0
   43.1457   34.4277   70.9785 C   0  0  0  0  0  0
   42.5554   35.1116   72.0545 C   0  0  0  0  0  0
   43.3449   36.0981   72.6715 C   0  0  0  0  0  0
   42.8059   36.8870   73.8473 C   0  0  0  0  0  0
   44.6004   36.3666   72.2644 N   0  0  0  0  0  0
   45.0733   35.6563   71.2228 C   0  0  0  0  0  0
   44.3997   34.7106   70.5549 N   0  0  0  0  0  0
   46.3859   35.9261   70.8162 N   0  0  0  0  0  0
   47.3797   36.5873   71.6483 C   0  0  0  0  0  0
   48.6679   36.7159   70.8165 C   0  0  2  0  0  0
   48.9330   38.1394   70.2950 C   0  0  0  0  0  0
   48.4610   38.1315   68.9119 N   0  0  0  0  0  0
   48.6872   36.7906   68.3814 C   0  0  0  0  0  0
   48.4619   35.8470   69.5724 C   0  0  2  0  0  0
   47.0250   35.2980   69.6695 C   0  0  0  0  0  0
   47.4964   38.9865   68.4782 C   0  0  0  0  0  0
   47.0573   39.9326   69.1306 O   0  0  0  0  0  0
   46.9757   38.7675   67.0814 C   0  0  0  0  0  0
   45.7784   38.1516   67.0283 N   0  0  0  0  0  0
   45.3061   37.8308   65.8225 C   0  0  0  0  0  0
   45.9861   38.1662   64.6570 C   0  0  0  0  0  0
   45.4427   37.6799   63.1634 Cl  0  0  0  0  0  0
   47.1998   38.8522   64.7021 C   0  0  0  0  0  0
   47.7618   39.1270   65.9439 C   0  0  0  0  0  0
   49.0618   39.7200   65.9519 N   0  0  0  0  0  0
   49.9342   39.6361   66.9904 N   0  0  0  0  0  0
   50.9552   40.3503   66.6086 C   0  0  0  0  0  0
   50.7075   40.8382   65.3082 C   0  0  0  0  0  0
   49.5495   40.4245   64.8864 N   0  0  0  0  0  0
   41.4350   33.1259   70.7430 H   0  0  0  0  0  0
   42.2108   33.6103   69.2306 H   0  0  0  0  0  0
   42.9781   32.4095   70.2540 H   0  0  0  0  0  0
   41.5548   34.8865   72.3882 H   0  0  0  0  0  0
   41.7865   36.5865   74.0804 H   0  0  0  0  0  0
   43.4226   36.7251   74.7328 H   0  0  0  0  0  0
   42.8038   37.9526   73.6285 H   0  0  0  0  0  0
   47.5668   35.9814   72.5344 H   0  0  0  0  0  0
   47.0259   37.5616   71.9846 H   0  0  0  0  0  0
   49.5236   36.3714   71.3977 H   0  0  0  0  0  0
   50.0038   38.3480   70.2768 H   0  0  0  0  0  0
   48.4698   38.9034   70.9205 H   0  0  0  0  0  0
   49.7211   36.7304   68.0402 H   0  0  0  0  0  0
   48.0654   36.5072   67.5298 H   0  0  0  0  0  0
   49.1732   35.0201   69.5386 H   0  0  0  0  0  0
   46.4558   35.5190   68.7666 H   0  0  0  0  0  0
   47.0384   34.2152   69.7928 H   0  0  0  0  0  0
   44.3771   37.2793   65.7777 H   0  0  0  0  0  0
   47.6895   39.0872   63.7702 H   0  0  0  0  0  0
   51.7996   40.4940   67.2599 H   0  0  0  0  0  0
   51.3480   41.4710   64.7098 H   0  0  0  0  0  0
  1  2  1  0  0  0
  1 31  1  0  0  0
  1 32  1  0  0  0
  1 33  1  0  0  0
  2  3  2  0  0  0
  2  8  1  0  0  0
  3  4  1  0  0  0
  3 34  1  0  0  0
  4  5  1  0  0  0
  4  6  2  0  0  0
  5 35  1  0  0  0
  5 36  1  0  0  0
  5 37  1  0  0  0
  6  7  1  0  0  0
  7  8  2  0  0  0
  7  9  1  0  0  0
  9 10  1  0  0  0
  9 16  1  0  0  0
 10 11  1  0  0  0
 10 38  1  0  0  0
 10 39  1  0  0  0
 11 12  1  0  0  0
 11 15  1  0  0  0
 11 40  1  0  0  0
 12 13  1  0  0  0
 12 41  1  0  0  0
 12 42  1  0  0  0
 13 14  1  0  0  0
 13 17  1  0  0  0
 14 15  1  0  0  0
 14 43  1  0  0  0
 14 44  1  0  0  0
 15 16  1  0  0  0
 15 45  1  0  0  0
 16 46  1  0  0  0
 16 47  1  0  0  0
 17 18  2  0  0  0
 17 19  1  0  0  0
 19 20  2  0  0  0
 19 25  1  0  0  0
 20 21  1  0  0  0
 21 22  2  0  0  0
 21 48  1  0  0  0
 22 23  1  0  0  0
 22 24  1  0  0  0
 24 25  2  0  0  0
 24 49  1  0  0  0
 25 26  1  0  0  0
 26 27  1  0  0  0
 26 30  1  0  0  0
 27 28  2  0  0  0
 28 29  1  0  0  0
 28 50  1  0  0  0
 29 30  2  0  0  0
 29 51  1  0  0  0
M  END
> <entry id>
75

> <entry name>
OX2_Set2_JOB19_Ligs.15

> <Source Path>
C:\shenshi\GPCR\OX2_fep\ci0c00449_si_002\SI_DataSet_Inputs

> <Source File>
OX2_Set2_JOB19_Ligs.sdf

> <Source File Index>
15

> <HCRTR2_C pKi>
6.9892

> <job name>
constraint-docking

> <glide gridfile>
glide-grid_1

> <glide lignum>
15

> <glide rotatable bonds>
4

> <docking score>
-7.79326827178015

> <glide ligand efficiency>
-0.259775609059338

> <glide ligand efficiency sa>
-0.807183215808008

> <glide ligand efficiency ln>
-1.77071546580739

> <glide gscore>
-7.79326827178015

> <glide lipo>
-2.62781721790846

> <glide hbond>
-0.79117387096894

> <glide metal>
0

> <glide rewards>
-1.01736772068408

> <glide evdw>
-37.2839813232422

> <glide ecoul>
-12.8689670562744

> <glide erotb>
0.439428126468706

> <glide esite>
-0.00179346408410569

> <glide emodel>
-56.1902961197674

> <glide energy>
-50.1529483795166

> <glide einternal>
2.26050615310669

> <glide confnum>
7

> <glide posenum>
40

> <glide eff state penalty>
0

> <glide rmsd>
0.0404659251805312

> <core constrain type>
snapped_core_restrain

> <subgroup title>
constraint-docking_pv1

> <subgroupid>
constraint-docking_pv1

> <subgroup collapsed>
0

$$$$
