49188
                    3D
 Schrodinger Suite 2021-2.
 54 58  0  0  1  0            999 V2000
   43.7517   38.0777   65.6842 C   0  0  0  0  0  0
   45.1773   38.4790   65.6956 C   0  0  0  0  0  0
   45.9333   38.5519   64.5154 C   0  0  0  0  0  0
   47.3117   38.7649   64.6490 C   0  0  0  0  0  0
   47.8597   38.8825   65.9436 C   0  0  0  0  0  0
   46.9800   38.7868   67.0683 C   0  0  0  0  0  0
   45.6624   38.6338   66.9345 N   0  0  0  0  0  0
   47.4866   38.9647   68.4710 C   0  0  0  0  0  0
   47.0772   39.9221   69.1333 O   0  0  0  0  0  0
   48.4574   38.1257   68.9021 N   0  0  0  0  0  0
   48.9063   38.1299   70.2944 C   0  0  0  0  0  0
   48.6584   36.7071   70.8184 C   0  0  1  0  0  0
   47.3791   36.5600   71.6582 C   0  0  0  0  0  0
   46.3777   35.9303   70.8102 N   0  0  0  0  0  0
   47.0223   35.2925   69.6735 C   0  0  0  0  0  0
   48.4594   35.8389   69.5735 C   0  0  1  0  0  0
   48.6931   36.7786   68.3795 C   0  0  0  0  0  0
   45.0689   35.6520   71.2196 C   0  0  0  0  0  0
   44.3982   34.6979   70.5563 N   0  0  0  0  0  0
   43.1437   34.4184   70.9826 C   0  0  0  0  0  0
   42.3883   33.3173   70.2636 C   0  0  0  0  0  0
   42.5510   35.1104   72.0517 C   0  0  0  0  0  0
   43.3355   36.1024   72.6624 C   0  0  0  0  0  0
   42.7919   36.9008   73.8275 C   0  0  0  0  0  0
   44.5999   36.3617   72.2561 N   0  0  0  0  0  0
   49.2498   39.1288   66.0500 N   0  0  0  0  0  0
   50.1676   38.4622   65.3031 N   0  0  0  0  0  0
   51.2921   39.0166   65.6759 C   0  0  0  0  0  0
   51.0433   40.0275   66.6235 C   0  0  0  0  0  0
   49.7666   40.0788   66.8695 N   0  0  0  0  0  0
   43.4280   37.6957   64.7170 H   0  0  0  0  0  0
   43.8438   37.2792   66.3939 H   0  0  0  0  0  0
   43.0571   38.8000   66.1103 H   0  0  0  0  0  0
   45.4842   38.4069   63.5433 H   0  0  0  0  0  0
   47.9364   38.8275   63.7710 H   0  0  0  0  0  0
   48.4343   38.8792   70.9309 H   0  0  0  0  0  0
   49.9758   38.3442   70.2999 H   0  0  0  0  0  0
   49.5170   36.3754   71.3987 H   0  0  0  0  0  0
   47.0278   37.5228   72.0293 H   0  0  0  0  0  0
   47.5591   35.9168   72.5229 H   0  0  0  0  0  0
   46.4503   35.5016   68.7695 H   0  0  0  0  0  0
   47.0336   34.2093   69.8115 H   0  0  0  0  0  0
   49.1655   35.0047   69.5470 H   0  0  0  0  0  0
   49.7354   36.7242   68.0609 H   0  0  0  0  0  0
   48.0794   36.4979   67.5212 H   0  0  0  0  0  0
   43.0440   32.4801   70.0347 H   0  0  0  0  0  0
   41.5664   32.9439   70.8735 H   0  0  0  0  0  0
   41.9726   33.6971   69.3301 H   0  0  0  0  0  0
   41.5450   34.8920   72.3835 H   0  0  0  0  0  0
   42.6431   36.2515   74.6890 H   0  0  0  0  0  0
   43.4714   37.7021   74.1162 H   0  0  0  0  0  0
   41.8366   37.3469   73.5571 H   0  0  0  0  0  0
   52.2351   38.7132   65.2426 H   0  0  0  0  0  0
   51.7376   40.6859   67.1254 H   0  0  0  0  0  0
  1  2  1  0  0  0
  1 31  1  0  0  0
  1 32  1  0  0  0
  1 33  1  0  0  0
  2  3  2  0  0  0
  2  7  1  0  0  0
  3  4  1  0  0  0
  3 34  1  0  0  0
  4  5  2  0  0  0
  4 35  1  0  0  0
  5  6  1  0  0  0
  5 26  1  0  0  0
  6  7  2  0  0  0
  6  8  1  0  0  0
  8  9  2  0  0  0
  8 10  1  0  0  0
 10 11  1  0  0  0
 10 17  1  0  0  0
 11 12  1  0  0  0
 11 36  1  0  0  0
 11 37  1  0  0  0
 12 13  1  0  0  0
 12 16  1  0  0  0
 12 38  1  0  0  0
 13 14  1  0  0  0
 13 39  1  0  0  0
 13 40  1  0  0  0
 14 15  1  0  0  0
 14 18  1  0  0  0
 15 16  1  0  0  0
 15 41  1  0  0  0
 15 42  1  0  0  0
 16 17  1  0  0  0
 16 43  1  0  0  0
 17 44  1  0  0  0
 17 45  1  0  0  0
 18 19  2  0  0  0
 18 25  1  0  0  0
 19 20  1  0  0  0
 20 21  1  0  0  0
 20 22  2  0  0  0
 21 46  1  0  0  0
 21 47  1  0  0  0
 21 48  1  0  0  0
 22 23  1  0  0  0
 22 49  1  0  0  0
 23 24  1  0  0  0
 23 25  2  0  0  0
 24 50  1  0  0  0
 24 51  1  0  0  0
 24 52  1  0  0  0
 26 27  1  0  0  0
 26 30  1  0  0  0
 27 28  2  0  0  0
 28 29  1  0  0  0
 28 53  1  0  0  0
 29 30  2  0  0  0
 29 54  1  0  0  0
M  END
> <entry id>
70

> <entry name>
OX2_Set2_JOB19_Ligs.22

> <Source Path>
C:\shenshi\GPCR\OX2_fep\ci0c00449_si_002\SI_DataSet_Inputs

> <Source File>
OX2_Set2_JOB19_Ligs.sdf

> <Source File Index>
22

> <HCRTR2_C pKi>
6.2534

> <job name>
constraint-docking

> <glide gridfile>
glide-grid_1

> <glide lignum>
22

> <glide rotatable bonds>
4

> <docking score>
-8.40020914922419

> <glide ligand efficiency>
-0.280006971640806

> <glide ligand efficiency sa>
-0.870046763189613

> <glide ligand efficiency ln>
-1.9086190463132

> <glide gscore>
-8.40020914922419

> <glide lipo>
-2.12969069890201

> <glide hbond>
-0.935744637400958

> <glide metal>
0

> <glide rewards>
-1.18585682275307

> <glide evdw>
-40.1101684570313

> <glide ecoul>
-17.482084274292

> <glide erotb>
0.480294686830354

> <glide esite>
-0.00139061300313254

> <glide emodel>
-70.0553874087566

> <glide energy>
-57.5922527313232

> <glide einternal>
1.39660227298737

> <glide confnum>
9

> <glide posenum>
33

> <glide eff state penalty>
0

> <glide rmsd>
0.0410843824177647

> <core constrain type>
snapped_core_restrain

> <subgroup title>
constraint-docking_pv1

> <subgroupid>
constraint-docking_pv1

> <subgroup collapsed>
0

$$$$
