50865
                    3D
 Schrodinger Suite 2021-2.
 55 59  0  0  1  0            999 V2000
   44.0052   37.4731   63.5921 C   0  0  0  0  0  0
   45.3419   37.9316   63.5026 O   0  0  0  0  0  0
   45.8897   38.2602   64.6967 C   0  0  0  0  0  0
   45.1562   38.2194   65.9040 C   0  0  0  0  0  0
   45.6939   38.4647   67.0797 N   0  0  0  0  0  0
   46.9809   38.7596   67.0906 C   0  0  0  0  0  0
   47.5189   38.9834   68.4788 C   0  0  0  0  0  0
   47.1099   39.9411   69.1463 O   0  0  0  0  0  0
   48.4724   38.1240   68.9206 N   0  0  0  0  0  0
   48.9395   38.1131   70.3024 C   0  0  0  0  0  0
   48.6757   36.6930   70.8177 C   0  0  1  0  0  0
   47.3884   36.5617   71.6507 C   0  0  0  0  0  0
   46.3843   35.9274   70.8075 N   0  0  0  0  0  0
   47.0298   35.2708   69.6800 C   0  0  0  0  0  0
   48.4644   35.8237   69.5756 C   0  0  1  0  0  0
   48.6736   36.7749   68.3867 C   0  0  0  0  0  0
   45.0735   35.6488   71.2178 C   0  0  0  0  0  0
   44.4036   34.6947   70.5491 N   0  0  0  0  0  0
   43.1534   34.4128   70.9776 C   0  0  0  0  0  0
   42.4075   33.3027   70.2744 C   0  0  0  0  0  0
   42.5651   35.1032   72.0485 C   0  0  0  0  0  0
   43.3429   36.0973   72.6640 C   0  0  0  0  0  0
   42.8032   36.8991   73.8273 C   0  0  0  0  0  0
   44.6012   36.3684   72.2526 N   0  0  0  0  0  0
   47.8294   38.9241   65.9675 C   0  0  0  0  0  0
   47.2374   38.6602   64.7291 C   0  0  0  0  0  0
   49.2065   39.3055   66.0368 N   0  0  0  0  0  0
   50.1144   38.9429   65.0906 N   0  0  0  0  0  0
   51.2264   39.4962   65.5157 C   0  0  0  0  0  0
   50.9809   40.2001   66.7104 C   0  0  0  0  0  0
   49.7220   40.0771   67.0308 N   0  0  0  0  0  0
   43.6752   37.0592   62.6406 H   0  0  0  0  0  0
   43.9036   36.6958   64.3429 H   0  0  0  0  0  0
   43.3703   38.3077   63.8862 H   0  0  0  0  0  0
   44.1052   37.9733   65.9537 H   0  0  0  0  0  0
   48.4889   38.8762   70.9400 H   0  0  0  0  0  0
   50.0077   38.3084   70.2829 H   0  0  0  0  0  0
   49.5155   36.3311   71.4076 H   0  0  0  0  0  0
   47.0307   37.5225   72.0157 H   0  0  0  0  0  0
   47.5505   35.9251   72.5215 H   0  0  0  0  0  0
   46.4648   35.4434   68.7632 H   0  0  0  0  0  0
   47.0424   34.1931   69.8500 H   0  0  0  0  0  0
   49.1768   34.9951   69.5370 H   0  0  0  0  0  0
   49.7032   36.7126   68.0331 H   0  0  0  0  0  0
   48.0306   36.5061   67.5485 H   0  0  0  0  0  0
   42.1848   32.4989   70.9751 H   0  0  0  0  0  0
   41.4690   33.6735   69.8664 H   0  0  0  0  0  0
   42.9936   32.8817   69.4541 H   0  0  0  0  0  0
   41.5631   34.8804   72.3765 H   0  0  0  0  0  0
   43.1936   37.9200   73.8068 H   0  0  0  0  0  0
   41.7212   36.9474   73.7859 H   0  0  0  0  0  0
   43.0989   36.4441   74.7714 H   0  0  0  0  0  0
   47.8026   38.7369   63.8182 H   0  0  0  0  0  0
   52.1605   39.3867   64.9731 H   0  0  0  0  0  0
   51.6846   40.7590   67.3155 H   0  0  0  0  0  0
  1  2  1  0  0  0
  1 32  1  0  0  0
  1 33  1  0  0  0
  1 34  1  0  0  0
  2  3  1  0  0  0
  3  4  2  0  0  0
  3 26  1  0  0  0
  4  5  1  0  0  0
  4 35  1  0  0  0
  5  6  2  0  0  0
  6  7  1  0  0  0
  6 25  1  0  0  0
  7  8  2  0  0  0
  7  9  1  0  0  0
  9 10  1  0  0  0
  9 16  1  0  0  0
 10 11  1  0  0  0
 10 36  1  0  0  0
 10 37  1  0  0  0
 11 12  1  0  0  0
 11 15  1  0  0  0
 11 38  1  0  0  0
 12 13  1  0  0  0
 12 39  1  0  0  0
 12 40  1  0  0  0
 13 14  1  0  0  0
 13 17  1  0  0  0
 14 15  1  0  0  0
 14 41  1  0  0  0
 14 42  1  0  0  0
 15 16  1  0  0  0
 15 43  1  0  0  0
 16 44  1  0  0  0
 16 45  1  0  0  0
 17 18  2  0  0  0
 17 24  1  0  0  0
 18 19  1  0  0  0
 19 20  1  0  0  0
 19 21  2  0  0  0
 20 46  1  0  0  0
 20 47  1  0  0  0
 20 48  1  0  0  0
 21 22  1  0  0  0
 21 49  1  0  0  0
 22 23  1  0  0  0
 22 24  2  0  0  0
 23 50  1  0  0  0
 23 51  1  0  0  0
 23 52  1  0  0  0
 25 26  2  0  0  0
 25 27  1  0  0  0
 26 53  1  0  0  0
 27 28  1  0  0  0
 27 31  1  0  0  0
 28 29  2  0  0  0
 29 30  1  0  0  0
 29 54  1  0  0  0
 30 31  2  0  0  0
 30 55  1  0  0  0
M  END
> <entry id>
74

> <entry name>
OX2_Set2_JOB19_Ligs.14

> <Source Path>
C:\shenshi\GPCR\OX2_fep\ci0c00449_si_002\SI_DataSet_Inputs

> <Source File>
OX2_Set2_JOB19_Ligs.sdf

> <Source File Index>
14

> <HCRTR2_C pKi>
7.067

> <job name>
constraint-docking

> <glide gridfile>
glide-grid_1

> <glide lignum>
14

> <glide rotatable bonds>
5

> <docking score>
-7.93435749031915

> <glide ligand efficiency>
-0.255947015816747

> <glide ligand efficiency sa>
-0.804027002603703

> <glide ligand efficiency ln>
-1.78944077292177

> <glide gscore>
-7.93435749031915

> <glide lipo>
-2.2587007796588

> <glide hbond>
-0.812728073804603

> <glide metal>
0

> <glide rewards>
-1.07339050282626

> <glide evdw>
-38.447624206543

> <glide ecoul>
-15.4262762069702

> <glide erotb>
0.447816125970142

> <glide esite>
-0.0010316186269466

> <glide emodel>
-67.7133600034072

> <glide energy>
-53.8739004135132

> <glide einternal>
2.95542240142822

> <glide confnum>
9

> <glide posenum>
1

> <glide eff state penalty>
0

> <glide rmsd>
0.0444877989142449

> <core constrain type>
snapped_core_restrain

> <subgroup title>
constraint-docking_pv1

> <subgroupid>
constraint-docking_pv1

> <subgroup collapsed>
0

$$$$
